#\#CIF_2.0

##########################################################################
#               Crystallographic Information Format file
#               Produced by PyCifRW module
#
#  This is a CIF file.  CIF has been adopted by the International
#  Union of Crystallography as the standard for data archiving and
#  transmission.
#
#  For information on this file format, follow the CIF links at
#  http://www.iucr.org
##########################################################################

data_block_1

_chemical_name_common                   Cu_NP_sim
_cell_length_a                          43.400000
_cell_length_b                          43.400000
_cell_length_c                          25.270000
_cell_angle_alpha                       90
_cell_angle_beta                        90
_cell_angle_gamma                       90
_space_group_name_H-M_alt               'P 1'
_space_group_IT_number                  1
loop_
  _space_group_symop_operation_xyz
         'x, y, z' 
loop_
  _atom_site_label
  _atom_site_occupancy
  _atom_site_fract_x
  _atom_site_fract_y
  _atom_site_fract_z
  _atom_site_adp_type
  _atom_site_B_iso_or_equiv
  _atom_site_type_symbol
         Cu        1.0       0.624424  0.251152  0.500000  Biso      1.000000  Cu       
         Cu        1.0       0.582949  0.251152  0.428571  Biso      1.000000  Cu       
         Cu        1.0       0.582949  0.251152  0.571429  Biso      1.000000  Cu       
         Cu        1.0       0.541475  0.251152  0.357143  Biso      1.000000  Cu       
         Cu        1.0       0.541475  0.251152  0.500000  Biso      1.000000  Cu       
         Cu        1.0       0.541475  0.251152  0.642857  Biso      1.000000  Cu       
         Cu        1.0       0.500000  0.251152  0.428571  Biso      1.000000  Cu       
         Cu        1.0       0.500000  0.251152  0.571429  Biso      1.000000  Cu       
         Cu        1.0       0.458525  0.251152  0.357143  Biso      1.000000  Cu       
         Cu        1.0       0.458525  0.251152  0.500000  Biso      1.000000  Cu       
         Cu        1.0       0.458525  0.251152  0.642857  Biso      1.000000  Cu       
         Cu        1.0       0.417051  0.251152  0.428571  Biso      1.000000  Cu       
         Cu        1.0       0.417051  0.251152  0.571429  Biso      1.000000  Cu       
         Cu        1.0       0.373272  0.251152  0.500000  Biso      1.000000  Cu       
         Cu        1.0       0.665899  0.292627  0.500000  Biso      1.000000  Cu       
         Cu        1.0       0.624424  0.292627  0.428571  Biso      1.000000  Cu       
         Cu        1.0       0.624424  0.292627  0.571429  Biso      1.000000  Cu       
         Cu        1.0       0.582949  0.292627  0.357143  Biso      1.000000  Cu       
         Cu        1.0       0.582949  0.292627  0.500000  Biso      1.000000  Cu       
         Cu        1.0       0.582949  0.292627  0.642857  Biso      1.000000  Cu       
         Cu        1.0       0.541475  0.292627  0.285714  Biso      1.000000  Cu       
         Cu        1.0       0.541475  0.292627  0.428571  Biso      1.000000  Cu       
         Cu        1.0       0.541475  0.292627  0.571429  Biso      1.000000  Cu       
         Cu        1.0       0.541475  0.292627  0.714286  Biso      1.000000  Cu       
         Cu        1.0       0.500000  0.292627  0.357143  Biso      1.000000  Cu       
         Cu        1.0       0.500000  0.292627  0.500000  Biso      1.000000  Cu       
         Cu        1.0       0.500000  0.292627  0.642857  Biso      1.000000  Cu       
         Cu        1.0       0.458525  0.292627  0.285714  Biso      1.000000  Cu       
         Cu        1.0       0.458525  0.292627  0.428571  Biso      1.000000  Cu       
         Cu        1.0       0.458525  0.292627  0.571429  Biso      1.000000  Cu       
         Cu        1.0       0.458525  0.292627  0.714286  Biso      1.000000  Cu       
         Cu        1.0       0.417051  0.292627  0.357143  Biso      1.000000  Cu       
         Cu        1.0       0.417051  0.292627  0.500000  Biso      1.000000  Cu       
         Cu        1.0       0.417051  0.292627  0.642857  Biso      1.000000  Cu       
         Cu        1.0       0.373272  0.292627  0.428571  Biso      1.000000  Cu       
         Cu        1.0       0.373272  0.292627  0.571429  Biso      1.000000  Cu       
         Cu        1.0       0.331797  0.292627  0.500000  Biso      1.000000  Cu       
         Cu        1.0       0.707373  0.334101  0.500000  Biso      1.000000  Cu       
         Cu        1.0       0.665899  0.334101  0.428571  Biso      1.000000  Cu       
         Cu        1.0       0.665899  0.334101  0.571429  Biso      1.000000  Cu       
         Cu        1.0       0.624424  0.334101  0.357143  Biso      1.000000  Cu       
         Cu        1.0       0.624424  0.334101  0.500000  Biso      1.000000  Cu       
         Cu        1.0       0.624424  0.334101  0.642857  Biso      1.000000  Cu       
         Cu        1.0       0.582949  0.334101  0.285714  Biso      1.000000  Cu       
         Cu        1.0       0.582949  0.334101  0.428571  Biso      1.000000  Cu       
         Cu        1.0       0.582949  0.334101  0.571429  Biso      1.000000  Cu       
         Cu        1.0       0.582949  0.334101  0.714286  Biso      1.000000  Cu       
         Cu        1.0       0.541475  0.334101  0.142857  Biso      1.000000  Cu       
         Cu        1.0       0.541475  0.334101  0.285714  Biso      1.000000  Cu       
         Cu        1.0       0.541475  0.334101  0.428571  Biso      1.000000  Cu       
         Cu        1.0       0.541475  0.334101  0.571429  Biso      1.000000  Cu       
         Cu        1.0       0.541475  0.334101  0.714286  Biso      1.000000  Cu       
         Cu        1.0       0.541475  0.334101  0.857143  Biso      1.000000  Cu       
         Cu        1.0       0.500000  0.334101  0.285714  Biso      1.000000  Cu       
         Cu        1.0       0.500000  0.334101  0.428571  Biso      1.000000  Cu       
         Cu        1.0       0.500000  0.334101  0.571429  Biso      1.000000  Cu       
         Cu        1.0       0.500000  0.334101  0.714286  Biso      1.000000  Cu       
         Cu        1.0       0.458525  0.334101  0.142857  Biso      1.000000  Cu       
         Cu        1.0       0.458525  0.334101  0.285714  Biso      1.000000  Cu       
         Cu        1.0       0.458525  0.334101  0.428571  Biso      1.000000  Cu       
         Cu        1.0       0.458525  0.334101  0.571429  Biso      1.000000  Cu       
         Cu        1.0       0.458525  0.334101  0.714286  Biso      1.000000  Cu       
         Cu        1.0       0.458525  0.334101  0.857143  Biso      1.000000  Cu       
         Cu        1.0       0.417051  0.334101  0.285714  Biso      1.000000  Cu       
         Cu        1.0       0.417051  0.334101  0.428571  Biso      1.000000  Cu       
         Cu        1.0       0.417051  0.334101  0.571429  Biso      1.000000  Cu       
         Cu        1.0       0.417051  0.334101  0.714286  Biso      1.000000  Cu       
         Cu        1.0       0.373272  0.334101  0.357143  Biso      1.000000  Cu       
         Cu        1.0       0.373272  0.334101  0.500000  Biso      1.000000  Cu       
         Cu        1.0       0.373272  0.334101  0.642857  Biso      1.000000  Cu       
         Cu        1.0       0.331797  0.334101  0.428571  Biso      1.000000  Cu       
         Cu        1.0       0.331797  0.334101  0.571429  Biso      1.000000  Cu       
         Cu        1.0       0.290323  0.334101  0.500000  Biso      1.000000  Cu       
         Cu        1.0       0.748848  0.375576  0.500000  Biso      1.000000  Cu       
         Cu        1.0       0.707373  0.375576  0.428571  Biso      1.000000  Cu       
         Cu        1.0       0.707373  0.375576  0.571429  Biso      1.000000  Cu       
         Cu        1.0       0.665899  0.375576  0.357143  Biso      1.000000  Cu       
         Cu        1.0       0.665899  0.375576  0.500000  Biso      1.000000  Cu       
         Cu        1.0       0.665899  0.375576  0.642857  Biso      1.000000  Cu       
         Cu        1.0       0.624424  0.375576  0.285714  Biso      1.000000  Cu       
         Cu        1.0       0.624424  0.375576  0.428571  Biso      1.000000  Cu       
         Cu        1.0       0.624424  0.375576  0.571429  Biso      1.000000  Cu       
         Cu        1.0       0.624424  0.375576  0.714286  Biso      1.000000  Cu       
         Cu        1.0       0.582949  0.375576  0.142857  Biso      1.000000  Cu       
         Cu        1.0       0.582949  0.375576  0.285714  Biso      1.000000  Cu       
         Cu        1.0       0.582949  0.375576  0.428571  Biso      1.000000  Cu       
         Cu        1.0       0.582949  0.375576  0.571429  Biso      1.000000  Cu       
         Cu        1.0       0.582949  0.375576  0.714286  Biso      1.000000  Cu       
         Cu        1.0       0.582949  0.375576  0.857143  Biso      1.000000  Cu       
         Cu        1.0       0.541475  0.375576  0.071429  Biso      1.000000  Cu       
         Cu        1.0       0.541475  0.375576  0.214286  Biso      1.000000  Cu       
         Cu        1.0       0.541475  0.375576  0.357143  Biso      1.000000  Cu       
         Cu        1.0       0.541475  0.375576  0.500000  Biso      1.000000  Cu       
         Cu        1.0       0.541475  0.375576  0.642857  Biso      1.000000  Cu       
         Cu        1.0       0.541475  0.375576  0.785714  Biso      1.000000  Cu       
         Cu        1.0       0.541475  0.375576  0.928571  Biso      1.000000  Cu       
         Cu        1.0       0.500000  0.375576  0.142857  Biso      1.000000  Cu       
         Cu        1.0       0.500000  0.375576  0.285714  Biso      1.000000  Cu       
         Cu        1.0       0.500000  0.375576  0.428571  Biso      1.000000  Cu       
         Cu        1.0       0.500000  0.375576  0.571429  Biso      1.000000  Cu       
         Cu        1.0       0.500000  0.375576  0.714286  Biso      1.000000  Cu       
         Cu        1.0       0.500000  0.375576  0.857143  Biso      1.000000  Cu       
         Cu        1.0       0.458525  0.375576  0.071429  Biso      1.000000  Cu       
         Cu        1.0       0.458525  0.375576  0.214286  Biso      1.000000  Cu       
         Cu        1.0       0.458525  0.375576  0.357143  Biso      1.000000  Cu       
         Cu        1.0       0.458525  0.375576  0.500000  Biso      1.000000  Cu       
         Cu        1.0       0.458525  0.375576  0.642857  Biso      1.000000  Cu       
         Cu        1.0       0.458525  0.375576  0.785714  Biso      1.000000  Cu       
         Cu        1.0       0.458525  0.375576  0.928571  Biso      1.000000  Cu       
         Cu        1.0       0.417051  0.375576  0.142857  Biso      1.000000  Cu       
         Cu        1.0       0.417051  0.375576  0.285714  Biso      1.000000  Cu       
         Cu        1.0       0.417051  0.375576  0.428571  Biso      1.000000  Cu       
         Cu        1.0       0.417051  0.375576  0.571429  Biso      1.000000  Cu       
         Cu        1.0       0.417051  0.375576  0.714286  Biso      1.000000  Cu       
         Cu        1.0       0.417051  0.375576  0.857143  Biso      1.000000  Cu       
         Cu        1.0       0.373272  0.375576  0.285714  Biso      1.000000  Cu       
         Cu        1.0       0.373272  0.375576  0.428571  Biso      1.000000  Cu       
         Cu        1.0       0.373272  0.375576  0.571429  Biso      1.000000  Cu       
         Cu        1.0       0.373272  0.375576  0.714286  Biso      1.000000  Cu       
         Cu        1.0       0.331797  0.375576  0.357143  Biso      1.000000  Cu       
         Cu        1.0       0.331797  0.375576  0.500000  Biso      1.000000  Cu       
         Cu        1.0       0.331797  0.375576  0.642857  Biso      1.000000  Cu       
         Cu        1.0       0.290323  0.375576  0.428571  Biso      1.000000  Cu       
         Cu        1.0       0.290323  0.375576  0.571429  Biso      1.000000  Cu       
         Cu        1.0       0.248848  0.375576  0.500000  Biso      1.000000  Cu       
         Cu        1.0       0.748848  0.417051  0.428571  Biso      1.000000  Cu       
         Cu        1.0       0.748848  0.417051  0.571429  Biso      1.000000  Cu       
         Cu        1.0       0.707373  0.417051  0.357143  Biso      1.000000  Cu       
         Cu        1.0       0.707373  0.417051  0.500000  Biso      1.000000  Cu       
         Cu        1.0       0.707373  0.417051  0.642857  Biso      1.000000  Cu       
         Cu        1.0       0.665899  0.417051  0.285714  Biso      1.000000  Cu       
         Cu        1.0       0.665899  0.417051  0.428571  Biso      1.000000  Cu       
         Cu        1.0       0.665899  0.417051  0.571429  Biso      1.000000  Cu       
         Cu        1.0       0.665899  0.417051  0.714286  Biso      1.000000  Cu       
         Cu        1.0       0.624424  0.417051  0.142857  Biso      1.000000  Cu       
         Cu        1.0       0.624424  0.417051  0.285714  Biso      1.000000  Cu       
         Cu        1.0       0.624424  0.417051  0.428571  Biso      1.000000  Cu       
         Cu        1.0       0.624424  0.417051  0.571429  Biso      1.000000  Cu       
         Cu        1.0       0.624424  0.417051  0.714286  Biso      1.000000  Cu       
         Cu        1.0       0.624424  0.417051  0.857143  Biso      1.000000  Cu       
         Cu        1.0       0.582949  0.417051  0.071429  Biso      1.000000  Cu       
         Cu        1.0       0.582949  0.417051  0.214286  Biso      1.000000  Cu       
         Cu        1.0       0.582949  0.417051  0.357143  Biso      1.000000  Cu       
         Cu        1.0       0.582949  0.417051  0.500000  Biso      1.000000  Cu       
         Cu        1.0       0.582949  0.417051  0.642857  Biso      1.000000  Cu       
         Cu        1.0       0.582949  0.417051  0.785714  Biso      1.000000  Cu       
         Cu        1.0       0.582949  0.417051  0.928571  Biso      1.000000  Cu       
         Cu        1.0       0.541475  0.417051  0.142857  Biso      1.000000  Cu       
         Cu        1.0       0.541475  0.417051  0.285714  Biso      1.000000  Cu       
         Cu        1.0       0.541475  0.417051  0.428571  Biso      1.000000  Cu       
         Cu        1.0       0.541475  0.417051  0.571429  Biso      1.000000  Cu       
         Cu        1.0       0.541475  0.417051  0.714286  Biso      1.000000  Cu       
         Cu        1.0       0.541475  0.417051  0.857143  Biso      1.000000  Cu       
         Cu        1.0       0.500000  0.417051  0.071429  Biso      1.000000  Cu       
         Cu        1.0       0.500000  0.417051  0.214286  Biso      1.000000  Cu       
         Cu        1.0       0.500000  0.417051  0.357143  Biso      1.000000  Cu       
         Cu        1.0       0.500000  0.417051  0.500000  Biso      1.000000  Cu       
         Cu        1.0       0.500000  0.417051  0.642857  Biso      1.000000  Cu       
         Cu        1.0       0.500000  0.417051  0.785714  Biso      1.000000  Cu       
         Cu        1.0       0.500000  0.417051  0.928571  Biso      1.000000  Cu       
         Cu        1.0       0.458525  0.417051  0.142857  Biso      1.000000  Cu       
         Cu        1.0       0.458525  0.417051  0.285714  Biso      1.000000  Cu       
         Cu        1.0       0.458525  0.417051  0.428571  Biso      1.000000  Cu       
         Cu        1.0       0.458525  0.417051  0.571429  Biso      1.000000  Cu       
         Cu        1.0       0.458525  0.417051  0.714286  Biso      1.000000  Cu       
         Cu        1.0       0.458525  0.417051  0.857143  Biso      1.000000  Cu       
         Cu        1.0       0.417051  0.417051  0.071429  Biso      1.000000  Cu       
         Cu        1.0       0.417051  0.417051  0.214286  Biso      1.000000  Cu       
         Cu        1.0       0.417051  0.417051  0.357143  Biso      1.000000  Cu       
         Cu        1.0       0.417051  0.417051  0.500000  Biso      1.000000  Cu       
         Cu        1.0       0.417051  0.417051  0.642857  Biso      1.000000  Cu       
         Cu        1.0       0.417051  0.417051  0.785714  Biso      1.000000  Cu       
         Cu        1.0       0.417051  0.417051  0.928571  Biso      1.000000  Cu       
         Cu        1.0       0.373272  0.417051  0.142857  Biso      1.000000  Cu       
         Cu        1.0       0.373272  0.417051  0.285714  Biso      1.000000  Cu       
         Cu        1.0       0.373272  0.417051  0.428571  Biso      1.000000  Cu       
         Cu        1.0       0.373272  0.417051  0.571429  Biso      1.000000  Cu       
         Cu        1.0       0.373272  0.417051  0.714286  Biso      1.000000  Cu       
         Cu        1.0       0.373272  0.417051  0.857143  Biso      1.000000  Cu       
         Cu        1.0       0.331797  0.417051  0.285714  Biso      1.000000  Cu       
         Cu        1.0       0.331797  0.417051  0.428571  Biso      1.000000  Cu       
         Cu        1.0       0.331797  0.417051  0.571429  Biso      1.000000  Cu       
         Cu        1.0       0.331797  0.417051  0.714286  Biso      1.000000  Cu       
         Cu        1.0       0.290323  0.417051  0.357143  Biso      1.000000  Cu       
         Cu        1.0       0.290323  0.417051  0.500000  Biso      1.000000  Cu       
         Cu        1.0       0.290323  0.417051  0.642857  Biso      1.000000  Cu       
         Cu        1.0       0.248848  0.417051  0.428571  Biso      1.000000  Cu       
         Cu        1.0       0.248848  0.417051  0.571429  Biso      1.000000  Cu       
         Cu        1.0       0.748848  0.458525  0.357143  Biso      1.000000  Cu       
         Cu        1.0       0.748848  0.458525  0.500000  Biso      1.000000  Cu       
         Cu        1.0       0.748848  0.458525  0.642857  Biso      1.000000  Cu       
         Cu        1.0       0.707373  0.458525  0.285714  Biso      1.000000  Cu       
         Cu        1.0       0.707373  0.458525  0.428571  Biso      1.000000  Cu       
         Cu        1.0       0.707373  0.458525  0.571429  Biso      1.000000  Cu       
         Cu        1.0       0.707373  0.458525  0.714286  Biso      1.000000  Cu       
         Cu        1.0       0.665899  0.458525  0.142857  Biso      1.000000  Cu       
         Cu        1.0       0.665899  0.458525  0.285714  Biso      1.000000  Cu       
         Cu        1.0       0.665899  0.458525  0.428571  Biso      1.000000  Cu       
         Cu        1.0       0.665899  0.458525  0.571429  Biso      1.000000  Cu       
         Cu        1.0       0.665899  0.458525  0.714286  Biso      1.000000  Cu       
         Cu        1.0       0.665899  0.458525  0.857143  Biso      1.000000  Cu       
         Cu        1.0       0.624424  0.458525  0.071429  Biso      1.000000  Cu       
         Cu        1.0       0.624424  0.458525  0.214286  Biso      1.000000  Cu       
         Cu        1.0       0.624424  0.458525  0.357143  Biso      1.000000  Cu       
         Cu        1.0       0.624424  0.458525  0.500000  Biso      1.000000  Cu       
         Cu        1.0       0.624424  0.458525  0.642857  Biso      1.000000  Cu       
         Cu        1.0       0.624424  0.458525  0.785714  Biso      1.000000  Cu       
         Cu        1.0       0.624424  0.458525  0.928571  Biso      1.000000  Cu       
         Cu        1.0       0.582949  0.458525  0.142857  Biso      1.000000  Cu       
         Cu        1.0       0.582949  0.458525  0.285714  Biso      1.000000  Cu       
         Cu        1.0       0.582949  0.458525  0.428571  Biso      1.000000  Cu       
         Cu        1.0       0.582949  0.458525  0.571429  Biso      1.000000  Cu       
         Cu        1.0       0.582949  0.458525  0.714286  Biso      1.000000  Cu       
         Cu        1.0       0.582949  0.458525  0.857143  Biso      1.000000  Cu       
         Cu        1.0       0.541475  0.458525  0.071429  Biso      1.000000  Cu       
         Cu        1.0       0.541475  0.458525  0.214286  Biso      1.000000  Cu       
         Cu        1.0       0.541475  0.458525  0.357143  Biso      1.000000  Cu       
         Cu        1.0       0.541475  0.458525  0.500000  Biso      1.000000  Cu       
         Cu        1.0       0.541475  0.458525  0.642857  Biso      1.000000  Cu       
         Cu        1.0       0.541475  0.458525  0.785714  Biso      1.000000  Cu       
         Cu        1.0       0.541475  0.458525  0.928571  Biso      1.000000  Cu       
         Cu        1.0       0.500000  0.458525  0.142857  Biso      1.000000  Cu       
         Cu        1.0       0.500000  0.458525  0.285714  Biso      1.000000  Cu       
         Cu        1.0       0.500000  0.458525  0.428571  Biso      1.000000  Cu       
         Cu        1.0       0.500000  0.458525  0.571429  Biso      1.000000  Cu       
         Cu        1.0       0.500000  0.458525  0.714286  Biso      1.000000  Cu       
         Cu        1.0       0.500000  0.458525  0.857143  Biso      1.000000  Cu       
         Cu        1.0       0.458525  0.458525  0.071429  Biso      1.000000  Cu       
         Cu        1.0       0.458525  0.458525  0.214286  Biso      1.000000  Cu       
         Cu        1.0       0.458525  0.458525  0.357143  Biso      1.000000  Cu       
         Cu        1.0       0.458525  0.458525  0.500000  Biso      1.000000  Cu       
         Cu        1.0       0.458525  0.458525  0.642857  Biso      1.000000  Cu       
         Cu        1.0       0.458525  0.458525  0.785714  Biso      1.000000  Cu       
         Cu        1.0       0.458525  0.458525  0.928571  Biso      1.000000  Cu       
         Cu        1.0       0.417051  0.458525  0.142857  Biso      1.000000  Cu       
         Cu        1.0       0.417051  0.458525  0.285714  Biso      1.000000  Cu       
         Cu        1.0       0.417051  0.458525  0.428571  Biso      1.000000  Cu       
         Cu        1.0       0.417051  0.458525  0.571429  Biso      1.000000  Cu       
         Cu        1.0       0.417051  0.458525  0.714286  Biso      1.000000  Cu       
         Cu        1.0       0.417051  0.458525  0.857143  Biso      1.000000  Cu       
         Cu        1.0       0.373272  0.458525  0.071429  Biso      1.000000  Cu       
         Cu        1.0       0.373272  0.458525  0.214286  Biso      1.000000  Cu       
         Cu        1.0       0.373272  0.458525  0.357143  Biso      1.000000  Cu       
         Cu        1.0       0.373272  0.458525  0.500000  Biso      1.000000  Cu       
         Cu        1.0       0.373272  0.458525  0.642857  Biso      1.000000  Cu       
         Cu        1.0       0.373272  0.458525  0.785714  Biso      1.000000  Cu       
         Cu        1.0       0.373272  0.458525  0.928571  Biso      1.000000  Cu       
         Cu        1.0       0.331797  0.458525  0.142857  Biso      1.000000  Cu       
         Cu        1.0       0.331797  0.458525  0.285714  Biso      1.000000  Cu       
         Cu        1.0       0.331797  0.458525  0.428571  Biso      1.000000  Cu       
         Cu        1.0       0.331797  0.458525  0.571429  Biso      1.000000  Cu       
         Cu        1.0       0.331797  0.458525  0.714286  Biso      1.000000  Cu       
         Cu        1.0       0.331797  0.458525  0.857143  Biso      1.000000  Cu       
         Cu        1.0       0.290323  0.458525  0.285714  Biso      1.000000  Cu       
         Cu        1.0       0.290323  0.458525  0.428571  Biso      1.000000  Cu       
         Cu        1.0       0.290323  0.458525  0.571429  Biso      1.000000  Cu       
         Cu        1.0       0.290323  0.458525  0.714286  Biso      1.000000  Cu       
         Cu        1.0       0.248848  0.458525  0.357143  Biso      1.000000  Cu       
         Cu        1.0       0.248848  0.458525  0.500000  Biso      1.000000  Cu       
         Cu        1.0       0.248848  0.458525  0.642857  Biso      1.000000  Cu       
         Cu        1.0       0.748848  0.500000  0.428571  Biso      1.000000  Cu       
         Cu        1.0       0.748848  0.500000  0.571429  Biso      1.000000  Cu       
         Cu        1.0       0.707373  0.500000  0.357143  Biso      1.000000  Cu       
         Cu        1.0       0.707373  0.500000  0.500000  Biso      1.000000  Cu       
         Cu        1.0       0.707373  0.500000  0.642857  Biso      1.000000  Cu       
         Cu        1.0       0.665899  0.500000  0.285714  Biso      1.000000  Cu       
         Cu        1.0       0.665899  0.500000  0.428571  Biso      1.000000  Cu       
         Cu        1.0       0.665899  0.500000  0.571429  Biso      1.000000  Cu       
         Cu        1.0       0.665899  0.500000  0.714286  Biso      1.000000  Cu       
         Cu        1.0       0.624424  0.500000  0.142857  Biso      1.000000  Cu       
         Cu        1.0       0.624424  0.500000  0.285714  Biso      1.000000  Cu       
         Cu        1.0       0.624424  0.500000  0.428571  Biso      1.000000  Cu       
         Cu        1.0       0.624424  0.500000  0.571429  Biso      1.000000  Cu       
         Cu        1.0       0.624424  0.500000  0.714286  Biso      1.000000  Cu       
         Cu        1.0       0.624424  0.500000  0.857143  Biso      1.000000  Cu       
         Cu        1.0       0.582949  0.500000  0.071429  Biso      1.000000  Cu       
         Cu        1.0       0.582949  0.500000  0.214286  Biso      1.000000  Cu       
         Cu        1.0       0.582949  0.500000  0.357143  Biso      1.000000  Cu       
         Cu        1.0       0.582949  0.500000  0.500000  Biso      1.000000  Cu       
         Cu        1.0       0.582949  0.500000  0.642857  Biso      1.000000  Cu       
         Cu        1.0       0.582949  0.500000  0.785714  Biso      1.000000  Cu       
         Cu        1.0       0.582949  0.500000  0.928571  Biso      1.000000  Cu       
         Cu        1.0       0.541475  0.500000  0.142857  Biso      1.000000  Cu       
         Cu        1.0       0.541475  0.500000  0.285714  Biso      1.000000  Cu       
         Cu        1.0       0.541475  0.500000  0.428571  Biso      1.000000  Cu       
         Cu        1.0       0.541475  0.500000  0.571429  Biso      1.000000  Cu       
         Cu        1.0       0.541475  0.500000  0.714286  Biso      1.000000  Cu       
         Cu        1.0       0.541475  0.500000  0.857143  Biso      1.000000  Cu       
         Cu        1.0       0.500000  0.500000  0.071429  Biso      1.000000  Cu       
         Cu        1.0       0.500000  0.500000  0.214286  Biso      1.000000  Cu       
         Cu        1.0       0.500000  0.500000  0.357143  Biso      1.000000  Cu       
         Cu        1.0       0.500000  0.500000  0.500000  Biso      1.000000  Cu       
         Cu        1.0       0.500000  0.500000  0.642857  Biso      1.000000  Cu       
         Cu        1.0       0.500000  0.500000  0.785714  Biso      1.000000  Cu       
         Cu        1.0       0.500000  0.500000  0.928571  Biso      1.000000  Cu       
         Cu        1.0       0.458525  0.500000  0.142857  Biso      1.000000  Cu       
         Cu        1.0       0.458525  0.500000  0.285714  Biso      1.000000  Cu       
         Cu        1.0       0.458525  0.500000  0.428571  Biso      1.000000  Cu       
         Cu        1.0       0.458525  0.500000  0.571429  Biso      1.000000  Cu       
         Cu        1.0       0.458525  0.500000  0.714286  Biso      1.000000  Cu       
         Cu        1.0       0.458525  0.500000  0.857143  Biso      1.000000  Cu       
         Cu        1.0       0.417051  0.500000  0.071429  Biso      1.000000  Cu       
         Cu        1.0       0.417051  0.500000  0.214286  Biso      1.000000  Cu       
         Cu        1.0       0.417051  0.500000  0.357143  Biso      1.000000  Cu       
         Cu        1.0       0.417051  0.500000  0.500000  Biso      1.000000  Cu       
         Cu        1.0       0.417051  0.500000  0.642857  Biso      1.000000  Cu       
         Cu        1.0       0.417051  0.500000  0.785714  Biso      1.000000  Cu       
         Cu        1.0       0.417051  0.500000  0.928571  Biso      1.000000  Cu       
         Cu        1.0       0.373272  0.500000  0.142857  Biso      1.000000  Cu       
         Cu        1.0       0.373272  0.500000  0.285714  Biso      1.000000  Cu       
         Cu        1.0       0.373272  0.500000  0.428571  Biso      1.000000  Cu       
         Cu        1.0       0.373272  0.500000  0.571429  Biso      1.000000  Cu       
         Cu        1.0       0.373272  0.500000  0.714286  Biso      1.000000  Cu       
         Cu        1.0       0.373272  0.500000  0.857143  Biso      1.000000  Cu       
         Cu        1.0       0.331797  0.500000  0.285714  Biso      1.000000  Cu       
         Cu        1.0       0.331797  0.500000  0.428571  Biso      1.000000  Cu       
         Cu        1.0       0.331797  0.500000  0.571429  Biso      1.000000  Cu       
         Cu        1.0       0.331797  0.500000  0.714286  Biso      1.000000  Cu       
         Cu        1.0       0.290323  0.500000  0.357143  Biso      1.000000  Cu       
         Cu        1.0       0.290323  0.500000  0.500000  Biso      1.000000  Cu       
         Cu        1.0       0.290323  0.500000  0.642857  Biso      1.000000  Cu       
         Cu        1.0       0.248848  0.500000  0.428571  Biso      1.000000  Cu       
         Cu        1.0       0.248848  0.500000  0.571429  Biso      1.000000  Cu       
         Cu        1.0       0.748848  0.541475  0.357143  Biso      1.000000  Cu       
         Cu        1.0       0.748848  0.541475  0.500000  Biso      1.000000  Cu       
         Cu        1.0       0.748848  0.541475  0.642857  Biso      1.000000  Cu       
         Cu        1.0       0.707373  0.541475  0.285714  Biso      1.000000  Cu       
         Cu        1.0       0.707373  0.541475  0.428571  Biso      1.000000  Cu       
         Cu        1.0       0.707373  0.541475  0.571429  Biso      1.000000  Cu       
         Cu        1.0       0.707373  0.541475  0.714286  Biso      1.000000  Cu       
         Cu        1.0       0.665899  0.541475  0.142857  Biso      1.000000  Cu       
         Cu        1.0       0.665899  0.541475  0.285714  Biso      1.000000  Cu       
         Cu        1.0       0.665899  0.541475  0.428571  Biso      1.000000  Cu       
         Cu        1.0       0.665899  0.541475  0.571429  Biso      1.000000  Cu       
         Cu        1.0       0.665899  0.541475  0.714286  Biso      1.000000  Cu       
         Cu        1.0       0.665899  0.541475  0.857143  Biso      1.000000  Cu       
         Cu        1.0       0.624424  0.541475  0.071429  Biso      1.000000  Cu       
         Cu        1.0       0.624424  0.541475  0.214286  Biso      1.000000  Cu       
         Cu        1.0       0.624424  0.541475  0.357143  Biso      1.000000  Cu       
         Cu        1.0       0.624424  0.541475  0.500000  Biso      1.000000  Cu       
         Cu        1.0       0.624424  0.541475  0.642857  Biso      1.000000  Cu       
         Cu        1.0       0.624424  0.541475  0.785714  Biso      1.000000  Cu       
         Cu        1.0       0.624424  0.541475  0.928571  Biso      1.000000  Cu       
         Cu        1.0       0.582949  0.541475  0.142857  Biso      1.000000  Cu       
         Cu        1.0       0.582949  0.541475  0.285714  Biso      1.000000  Cu       
         Cu        1.0       0.582949  0.541475  0.428571  Biso      1.000000  Cu       
         Cu        1.0       0.582949  0.541475  0.571429  Biso      1.000000  Cu       
         Cu        1.0       0.582949  0.541475  0.714286  Biso      1.000000  Cu       
         Cu        1.0       0.582949  0.541475  0.857143  Biso      1.000000  Cu       
         Cu        1.0       0.541475  0.541475  0.071429  Biso      1.000000  Cu       
         Cu        1.0       0.541475  0.541475  0.214286  Biso      1.000000  Cu       
         Cu        1.0       0.541475  0.541475  0.357143  Biso      1.000000  Cu       
         Cu        1.0       0.541475  0.541475  0.500000  Biso      1.000000  Cu       
         Cu        1.0       0.541475  0.541475  0.642857  Biso      1.000000  Cu       
         Cu        1.0       0.541475  0.541475  0.785714  Biso      1.000000  Cu       
         Cu        1.0       0.541475  0.541475  0.928571  Biso      1.000000  Cu       
         Cu        1.0       0.500000  0.541475  0.142857  Biso      1.000000  Cu       
         Cu        1.0       0.500000  0.541475  0.285714  Biso      1.000000  Cu       
         Cu        1.0       0.500000  0.541475  0.428571  Biso      1.000000  Cu       
         Cu        1.0       0.500000  0.541475  0.571429  Biso      1.000000  Cu       
         Cu        1.0       0.500000  0.541475  0.714286  Biso      1.000000  Cu       
         Cu        1.0       0.500000  0.541475  0.857143  Biso      1.000000  Cu       
         Cu        1.0       0.458525  0.541475  0.071429  Biso      1.000000  Cu       
         Cu        1.0       0.458525  0.541475  0.214286  Biso      1.000000  Cu       
         Cu        1.0       0.458525  0.541475  0.357143  Biso      1.000000  Cu       
         Cu        1.0       0.458525  0.541475  0.500000  Biso      1.000000  Cu       
         Cu        1.0       0.458525  0.541475  0.642857  Biso      1.000000  Cu       
         Cu        1.0       0.458525  0.541475  0.785714  Biso      1.000000  Cu       
         Cu        1.0       0.458525  0.541475  0.928571  Biso      1.000000  Cu       
         Cu        1.0       0.417051  0.541475  0.142857  Biso      1.000000  Cu       
         Cu        1.0       0.417051  0.541475  0.285714  Biso      1.000000  Cu       
         Cu        1.0       0.417051  0.541475  0.428571  Biso      1.000000  Cu       
         Cu        1.0       0.417051  0.541475  0.571429  Biso      1.000000  Cu       
         Cu        1.0       0.417051  0.541475  0.714286  Biso      1.000000  Cu       
         Cu        1.0       0.417051  0.541475  0.857143  Biso      1.000000  Cu       
         Cu        1.0       0.373272  0.541475  0.071429  Biso      1.000000  Cu       
         Cu        1.0       0.373272  0.541475  0.214286  Biso      1.000000  Cu       
         Cu        1.0       0.373272  0.541475  0.357143  Biso      1.000000  Cu       
         Cu        1.0       0.373272  0.541475  0.500000  Biso      1.000000  Cu       
         Cu        1.0       0.373272  0.541475  0.642857  Biso      1.000000  Cu       
         Cu        1.0       0.373272  0.541475  0.785714  Biso      1.000000  Cu       
         Cu        1.0       0.373272  0.541475  0.928571  Biso      1.000000  Cu       
         Cu        1.0       0.331797  0.541475  0.142857  Biso      1.000000  Cu       
         Cu        1.0       0.331797  0.541475  0.285714  Biso      1.000000  Cu       
         Cu        1.0       0.331797  0.541475  0.428571  Biso      1.000000  Cu       
         Cu        1.0       0.331797  0.541475  0.571429  Biso      1.000000  Cu       
         Cu        1.0       0.331797  0.541475  0.714286  Biso      1.000000  Cu       
         Cu        1.0       0.331797  0.541475  0.857143  Biso      1.000000  Cu       
         Cu        1.0       0.290323  0.541475  0.285714  Biso      1.000000  Cu       
         Cu        1.0       0.290323  0.541475  0.428571  Biso      1.000000  Cu       
         Cu        1.0       0.290323  0.541475  0.571429  Biso      1.000000  Cu       
         Cu        1.0       0.290323  0.541475  0.714286  Biso      1.000000  Cu       
         Cu        1.0       0.248848  0.541475  0.357143  Biso      1.000000  Cu       
         Cu        1.0       0.248848  0.541475  0.500000  Biso      1.000000  Cu       
         Cu        1.0       0.248848  0.541475  0.642857  Biso      1.000000  Cu       
         Cu        1.0       0.748848  0.582949  0.428571  Biso      1.000000  Cu       
         Cu        1.0       0.748848  0.582949  0.571429  Biso      1.000000  Cu       
         Cu        1.0       0.707373  0.582949  0.357143  Biso      1.000000  Cu       
         Cu        1.0       0.707373  0.582949  0.500000  Biso      1.000000  Cu       
         Cu        1.0       0.707373  0.582949  0.642857  Biso      1.000000  Cu       
         Cu        1.0       0.665899  0.582949  0.285714  Biso      1.000000  Cu       
         Cu        1.0       0.665899  0.582949  0.428571  Biso      1.000000  Cu       
         Cu        1.0       0.665899  0.582949  0.571429  Biso      1.000000  Cu       
         Cu        1.0       0.665899  0.582949  0.714286  Biso      1.000000  Cu       
         Cu        1.0       0.624424  0.582949  0.142857  Biso      1.000000  Cu       
         Cu        1.0       0.624424  0.582949  0.285714  Biso      1.000000  Cu       
         Cu        1.0       0.624424  0.582949  0.428571  Biso      1.000000  Cu       
         Cu        1.0       0.624424  0.582949  0.571429  Biso      1.000000  Cu       
         Cu        1.0       0.624424  0.582949  0.714286  Biso      1.000000  Cu       
         Cu        1.0       0.624424  0.582949  0.857143  Biso      1.000000  Cu       
         Cu        1.0       0.582949  0.582949  0.071429  Biso      1.000000  Cu       
         Cu        1.0       0.582949  0.582949  0.214286  Biso      1.000000  Cu       
         Cu        1.0       0.582949  0.582949  0.357143  Biso      1.000000  Cu       
         Cu        1.0       0.582949  0.582949  0.500000  Biso      1.000000  Cu       
         Cu        1.0       0.582949  0.582949  0.642857  Biso      1.000000  Cu       
         Cu        1.0       0.582949  0.582949  0.785714  Biso      1.000000  Cu       
         Cu        1.0       0.582949  0.582949  0.928571  Biso      1.000000  Cu       
         Cu        1.0       0.541475  0.582949  0.142857  Biso      1.000000  Cu       
         Cu        1.0       0.541475  0.582949  0.285714  Biso      1.000000  Cu       
         Cu        1.0       0.541475  0.582949  0.428571  Biso      1.000000  Cu       
         Cu        1.0       0.541475  0.582949  0.571429  Biso      1.000000  Cu       
         Cu        1.0       0.541475  0.582949  0.714286  Biso      1.000000  Cu       
         Cu        1.0       0.541475  0.582949  0.857143  Biso      1.000000  Cu       
         Cu        1.0       0.500000  0.582949  0.071429  Biso      1.000000  Cu       
         Cu        1.0       0.500000  0.582949  0.214286  Biso      1.000000  Cu       
         Cu        1.0       0.500000  0.582949  0.357143  Biso      1.000000  Cu       
         Cu        1.0       0.500000  0.582949  0.500000  Biso      1.000000  Cu       
         Cu        1.0       0.500000  0.582949  0.642857  Biso      1.000000  Cu       
         Cu        1.0       0.500000  0.582949  0.785714  Biso      1.000000  Cu       
         Cu        1.0       0.500000  0.582949  0.928571  Biso      1.000000  Cu       
         Cu        1.0       0.458525  0.582949  0.142857  Biso      1.000000  Cu       
         Cu        1.0       0.458525  0.582949  0.285714  Biso      1.000000  Cu       
         Cu        1.0       0.458525  0.582949  0.428571  Biso      1.000000  Cu       
         Cu        1.0       0.458525  0.582949  0.571429  Biso      1.000000  Cu       
         Cu        1.0       0.458525  0.582949  0.714286  Biso      1.000000  Cu       
         Cu        1.0       0.458525  0.582949  0.857143  Biso      1.000000  Cu       
         Cu        1.0       0.417051  0.582949  0.071429  Biso      1.000000  Cu       
         Cu        1.0       0.417051  0.582949  0.214286  Biso      1.000000  Cu       
         Cu        1.0       0.417051  0.582949  0.357143  Biso      1.000000  Cu       
         Cu        1.0       0.417051  0.582949  0.500000  Biso      1.000000  Cu       
         Cu        1.0       0.417051  0.582949  0.642857  Biso      1.000000  Cu       
         Cu        1.0       0.417051  0.582949  0.785714  Biso      1.000000  Cu       
         Cu        1.0       0.417051  0.582949  0.928571  Biso      1.000000  Cu       
         Cu        1.0       0.373272  0.582949  0.142857  Biso      1.000000  Cu       
         Cu        1.0       0.373272  0.582949  0.285714  Biso      1.000000  Cu       
         Cu        1.0       0.373272  0.582949  0.428571  Biso      1.000000  Cu       
         Cu        1.0       0.373272  0.582949  0.571429  Biso      1.000000  Cu       
         Cu        1.0       0.373272  0.582949  0.714286  Biso      1.000000  Cu       
         Cu        1.0       0.373272  0.582949  0.857143  Biso      1.000000  Cu       
         Cu        1.0       0.331797  0.582949  0.285714  Biso      1.000000  Cu       
         Cu        1.0       0.331797  0.582949  0.428571  Biso      1.000000  Cu       
         Cu        1.0       0.331797  0.582949  0.571429  Biso      1.000000  Cu       
         Cu        1.0       0.331797  0.582949  0.714286  Biso      1.000000  Cu       
         Cu        1.0       0.290323  0.582949  0.357143  Biso      1.000000  Cu       
         Cu        1.0       0.290323  0.582949  0.500000  Biso      1.000000  Cu       
         Cu        1.0       0.290323  0.582949  0.642857  Biso      1.000000  Cu       
         Cu        1.0       0.248848  0.582949  0.428571  Biso      1.000000  Cu       
         Cu        1.0       0.248848  0.582949  0.571429  Biso      1.000000  Cu       
         Cu        1.0       0.748848  0.626728  0.500000  Biso      1.000000  Cu       
         Cu        1.0       0.707373  0.626728  0.428571  Biso      1.000000  Cu       
         Cu        1.0       0.707373  0.626728  0.571429  Biso      1.000000  Cu       
         Cu        1.0       0.665899  0.626728  0.357143  Biso      1.000000  Cu       
         Cu        1.0       0.665899  0.626728  0.500000  Biso      1.000000  Cu       
         Cu        1.0       0.665899  0.626728  0.642857  Biso      1.000000  Cu       
         Cu        1.0       0.624424  0.626728  0.285714  Biso      1.000000  Cu       
         Cu        1.0       0.624424  0.626728  0.428571  Biso      1.000000  Cu       
         Cu        1.0       0.624424  0.626728  0.571429  Biso      1.000000  Cu       
         Cu        1.0       0.624424  0.626728  0.714286  Biso      1.000000  Cu       
         Cu        1.0       0.582949  0.626728  0.142857  Biso      1.000000  Cu       
         Cu        1.0       0.582949  0.626728  0.285714  Biso      1.000000  Cu       
         Cu        1.0       0.582949  0.626728  0.428571  Biso      1.000000  Cu       
         Cu        1.0       0.582949  0.626728  0.571429  Biso      1.000000  Cu       
         Cu        1.0       0.582949  0.626728  0.714286  Biso      1.000000  Cu       
         Cu        1.0       0.582949  0.626728  0.857143  Biso      1.000000  Cu       
         Cu        1.0       0.541475  0.626728  0.071429  Biso      1.000000  Cu       
         Cu        1.0       0.541475  0.626728  0.214286  Biso      1.000000  Cu       
         Cu        1.0       0.541475  0.626728  0.357143  Biso      1.000000  Cu       
         Cu        1.0       0.541475  0.626728  0.500000  Biso      1.000000  Cu       
         Cu        1.0       0.541475  0.626728  0.642857  Biso      1.000000  Cu       
         Cu        1.0       0.541475  0.626728  0.785714  Biso      1.000000  Cu       
         Cu        1.0       0.541475  0.626728  0.928571  Biso      1.000000  Cu       
         Cu        1.0       0.500000  0.626728  0.142857  Biso      1.000000  Cu       
         Cu        1.0       0.500000  0.626728  0.285714  Biso      1.000000  Cu       
         Cu        1.0       0.500000  0.626728  0.428571  Biso      1.000000  Cu       
         Cu        1.0       0.500000  0.626728  0.571429  Biso      1.000000  Cu       
         Cu        1.0       0.500000  0.626728  0.714286  Biso      1.000000  Cu       
         Cu        1.0       0.500000  0.626728  0.857143  Biso      1.000000  Cu       
         Cu        1.0       0.458525  0.626728  0.071429  Biso      1.000000  Cu       
         Cu        1.0       0.458525  0.626728  0.214286  Biso      1.000000  Cu       
         Cu        1.0       0.458525  0.626728  0.357143  Biso      1.000000  Cu       
         Cu        1.0       0.458525  0.626728  0.500000  Biso      1.000000  Cu       
         Cu        1.0       0.458525  0.626728  0.642857  Biso      1.000000  Cu       
         Cu        1.0       0.458525  0.626728  0.785714  Biso      1.000000  Cu       
         Cu        1.0       0.458525  0.626728  0.928571  Biso      1.000000  Cu       
         Cu        1.0       0.417051  0.626728  0.142857  Biso      1.000000  Cu       
         Cu        1.0       0.417051  0.626728  0.285714  Biso      1.000000  Cu       
         Cu        1.0       0.417051  0.626728  0.428571  Biso      1.000000  Cu       
         Cu        1.0       0.417051  0.626728  0.571429  Biso      1.000000  Cu       
         Cu        1.0       0.417051  0.626728  0.714286  Biso      1.000000  Cu       
         Cu        1.0       0.417051  0.626728  0.857143  Biso      1.000000  Cu       
         Cu        1.0       0.373272  0.626728  0.285714  Biso      1.000000  Cu       
         Cu        1.0       0.373272  0.626728  0.428571  Biso      1.000000  Cu       
         Cu        1.0       0.373272  0.626728  0.571429  Biso      1.000000  Cu       
         Cu        1.0       0.373272  0.626728  0.714286  Biso      1.000000  Cu       
         Cu        1.0       0.331797  0.626728  0.357143  Biso      1.000000  Cu       
         Cu        1.0       0.331797  0.626728  0.500000  Biso      1.000000  Cu       
         Cu        1.0       0.331797  0.626728  0.642857  Biso      1.000000  Cu       
         Cu        1.0       0.290323  0.626728  0.428571  Biso      1.000000  Cu       
         Cu        1.0       0.290323  0.626728  0.571429  Biso      1.000000  Cu       
         Cu        1.0       0.248848  0.626728  0.500000  Biso      1.000000  Cu       
         Cu        1.0       0.707373  0.668203  0.500000  Biso      1.000000  Cu       
         Cu        1.0       0.665899  0.668203  0.428571  Biso      1.000000  Cu       
         Cu        1.0       0.665899  0.668203  0.571429  Biso      1.000000  Cu       
         Cu        1.0       0.624424  0.668203  0.357143  Biso      1.000000  Cu       
         Cu        1.0       0.624424  0.668203  0.500000  Biso      1.000000  Cu       
         Cu        1.0       0.624424  0.668203  0.642857  Biso      1.000000  Cu       
         Cu        1.0       0.582949  0.668203  0.285714  Biso      1.000000  Cu       
         Cu        1.0       0.582949  0.668203  0.428571  Biso      1.000000  Cu       
         Cu        1.0       0.582949  0.668203  0.571429  Biso      1.000000  Cu       
         Cu        1.0       0.582949  0.668203  0.714286  Biso      1.000000  Cu       
         Cu        1.0       0.541475  0.668203  0.142857  Biso      1.000000  Cu       
         Cu        1.0       0.541475  0.668203  0.285714  Biso      1.000000  Cu       
         Cu        1.0       0.541475  0.668203  0.428571  Biso      1.000000  Cu       
         Cu        1.0       0.541475  0.668203  0.571429  Biso      1.000000  Cu       
         Cu        1.0       0.541475  0.668203  0.714286  Biso      1.000000  Cu       
         Cu        1.0       0.541475  0.668203  0.857143  Biso      1.000000  Cu       
         Cu        1.0       0.500000  0.668203  0.285714  Biso      1.000000  Cu       
         Cu        1.0       0.500000  0.668203  0.428571  Biso      1.000000  Cu       
         Cu        1.0       0.500000  0.668203  0.571429  Biso      1.000000  Cu       
         Cu        1.0       0.500000  0.668203  0.714286  Biso      1.000000  Cu       
         Cu        1.0       0.458525  0.668203  0.142857  Biso      1.000000  Cu       
         Cu        1.0       0.458525  0.668203  0.285714  Biso      1.000000  Cu       
         Cu        1.0       0.458525  0.668203  0.428571  Biso      1.000000  Cu       
         Cu        1.0       0.458525  0.668203  0.571429  Biso      1.000000  Cu       
         Cu        1.0       0.458525  0.668203  0.714286  Biso      1.000000  Cu       
         Cu        1.0       0.458525  0.668203  0.857143  Biso      1.000000  Cu       
         Cu        1.0       0.417051  0.668203  0.285714  Biso      1.000000  Cu       
         Cu        1.0       0.417051  0.668203  0.428571  Biso      1.000000  Cu       
         Cu        1.0       0.417051  0.668203  0.571429  Biso      1.000000  Cu       
         Cu        1.0       0.417051  0.668203  0.714286  Biso      1.000000  Cu       
         Cu        1.0       0.373272  0.668203  0.357143  Biso      1.000000  Cu       
         Cu        1.0       0.373272  0.668203  0.500000  Biso      1.000000  Cu       
         Cu        1.0       0.373272  0.668203  0.642857  Biso      1.000000  Cu       
         Cu        1.0       0.331797  0.668203  0.428571  Biso      1.000000  Cu       
         Cu        1.0       0.331797  0.668203  0.571429  Biso      1.000000  Cu       
         Cu        1.0       0.290323  0.668203  0.500000  Biso      1.000000  Cu       
         Cu        1.0       0.665899  0.709677  0.500000  Biso      1.000000  Cu       
         Cu        1.0       0.624424  0.709677  0.428571  Biso      1.000000  Cu       
         Cu        1.0       0.624424  0.709677  0.571429  Biso      1.000000  Cu       
         Cu        1.0       0.582949  0.709677  0.357143  Biso      1.000000  Cu       
         Cu        1.0       0.582949  0.709677  0.500000  Biso      1.000000  Cu       
         Cu        1.0       0.582949  0.709677  0.642857  Biso      1.000000  Cu       
         Cu        1.0       0.541475  0.709677  0.285714  Biso      1.000000  Cu       
         Cu        1.0       0.541475  0.709677  0.428571  Biso      1.000000  Cu       
         Cu        1.0       0.541475  0.709677  0.571429  Biso      1.000000  Cu       
         Cu        1.0       0.541475  0.709677  0.714286  Biso      1.000000  Cu       
         Cu        1.0       0.500000  0.709677  0.357143  Biso      1.000000  Cu       
         Cu        1.0       0.500000  0.709677  0.500000  Biso      1.000000  Cu       
         Cu        1.0       0.500000  0.709677  0.642857  Biso      1.000000  Cu       
         Cu        1.0       0.458525  0.709677  0.285714  Biso      1.000000  Cu       
         Cu        1.0       0.458525  0.709677  0.428571  Biso      1.000000  Cu       
         Cu        1.0       0.458525  0.709677  0.571429  Biso      1.000000  Cu       
         Cu        1.0       0.458525  0.709677  0.714286  Biso      1.000000  Cu       
         Cu        1.0       0.417051  0.709677  0.357143  Biso      1.000000  Cu       
         Cu        1.0       0.417051  0.709677  0.500000  Biso      1.000000  Cu       
         Cu        1.0       0.417051  0.709677  0.642857  Biso      1.000000  Cu       
         Cu        1.0       0.373272  0.709677  0.428571  Biso      1.000000  Cu       
         Cu        1.0       0.373272  0.709677  0.571429  Biso      1.000000  Cu       
         Cu        1.0       0.331797  0.709677  0.500000  Biso      1.000000  Cu       
         Cu        1.0       0.624424  0.751152  0.500000  Biso      1.000000  Cu       
         Cu        1.0       0.582949  0.751152  0.428571  Biso      1.000000  Cu       
         Cu        1.0       0.582949  0.751152  0.571429  Biso      1.000000  Cu       
         Cu        1.0       0.541475  0.751152  0.357143  Biso      1.000000  Cu       
         Cu        1.0       0.541475  0.751152  0.500000  Biso      1.000000  Cu       
         Cu        1.0       0.541475  0.751152  0.642857  Biso      1.000000  Cu       
         Cu        1.0       0.500000  0.751152  0.428571  Biso      1.000000  Cu       
         Cu        1.0       0.500000  0.751152  0.571429  Biso      1.000000  Cu       
         Cu        1.0       0.458525  0.751152  0.357143  Biso      1.000000  Cu       
         Cu        1.0       0.458525  0.751152  0.500000  Biso      1.000000  Cu       
         Cu        1.0       0.458525  0.751152  0.642857  Biso      1.000000  Cu       
         Cu        1.0       0.417051  0.751152  0.428571  Biso      1.000000  Cu       
         Cu        1.0       0.417051  0.751152  0.571429  Biso      1.000000  Cu       
         Cu        1.0       0.373272  0.751152  0.500000  Biso      1.000000  Cu